Version 4
SHEET 1 1244 680
WIRE 816 -192 672 -192
WIRE 608 -128 -32 -128
WIRE 672 -128 672 -192
WIRE 672 -128 608 -128
WIRE 880 32 880 -128
WIRE 960 32 880 32
WIRE 672 48 544 48
WIRE -32 112 -32 -128
WIRE 224 112 224 48
WIRE 224 112 144 112
WIRE 304 112 224 112
WIRE 544 112 544 48
WIRE 544 112 480 112
WIRE -32 288 -32 240
WIRE 192 288 -32 288
WIRE 480 288 480 240
WIRE 480 288 192 288
WIRE 144 336 144 240
WIRE 736 336 736 112
WIRE 736 336 144 336
WIRE 192 384 192 288
WIRE 304 384 304 240
WIRE 368 384 304 384
WIRE 608 384 608 -128
WIRE 736 384 736 336
WIRE 800 384 736 384
WIRE 880 384 880 32
WIRE 368 448 368 384
WIRE 544 448 368 448
WIRE 800 448 800 384
WIRE 816 448 800 448
WIRE 960 512 960 160
FLAG -96 176 Vin
FLAG -592 -80 Vin
FLAG 544 176 Vout
FLAG 960 32 Vout
FLAG 80 176 Vin
FLAG 368 176 Vout
FLAG 128 448 Vb
FLAG 160 -16 Vbp
FLAG -272 112 Vbp
FLAG -432 112 Vb
SYMBOL cktsym\\pmos3 144 176 R0
SYMATTR InstName U1
SYMBOL cktsym\\nmos3 -32 176 R0
SYMATTR InstName U2
SYMBOL cktsym\\vsource -592 176 R0
WINDOW 123 0 0 Left 2
WINDOW 39 0 0 Left 2
SYMATTR Value 5
SYMATTR InstName Vdd
SYMBOL cktsym\\vsource -592 -16 R0
WINDOW 123 0 0 Left 2
WINDOW 39 0 0 Left 2
SYMATTR Value PULSE(0.1 0.15 1m 1n 1n 20m 40m 1)
SYMATTR InstName Vin
SYMBOL cktsym\\nmos3 192 448 R0
SYMATTR InstName U5
SYMBOL cktsym\\nmos3 880 448 R0
SYMATTR InstName U6
SYMBOL cktsym\\nmos3 736 448 M0
SYMATTR InstName U7
SYMBOL cktsym\\nmos3 480 176 M0
SYMATTR InstName U8
SYMBOL cktsym\\nmos3 304 448 M0
SYMATTR InstName U9
SYMBOL cktsym\\nmos3 608 448 R0
SYMATTR InstName U10
SYMBOL cktsym\\pmos3 304 176 M0
SYMATTR InstName U11
SYMBOL cktsym\\pmos3 224 -16 R0
SYMATTR InstName U12
SYMBOL cktsym\\pmos3 736 48 R0
SYMATTR InstName U13
SYMBOL cktsym\\pmos3 480 48 M0
SYMATTR InstName U14
SYMBOL cktsym\\pmos3 880 -192 R0
SYMATTR InstName U15
SYMBOL cktsym\\pmos3 608 -192 M0
SYMATTR InstName U16
SYMBOL cktsym\\vdd -592 112 R0
SYMATTR InstName U19
SYMBOL cktsym\\vdd 480 -16 R0
SYMATTR InstName U20
SYMBOL cktsym\\vdd 224 -80 R0
SYMATTR InstName U21
SYMBOL cktsym\\vdd 736 -16 R0
SYMATTR InstName U22
SYMBOL cktsym\\vdd 608 -256 R0
SYMATTR InstName U23
SYMBOL cktsym\\vdd 880 -256 R0
SYMATTR InstName U24
SYMBOL cktsym\\gnd 192 512 R0
SYMATTR InstName U3
SYMBOL cktsym\\gnd 304 512 R0
SYMATTR InstName U25
SYMBOL cktsym\\gnd 608 512 R0
SYMATTR InstName U26
SYMBOL cktsym\\gnd 736 512 R0
SYMATTR InstName U27
SYMBOL cktsym\\gnd 880 512 R0
SYMATTR InstName U28
SYMBOL cktsym\\capacitor 960 96 R0
SYMATTR Value 1n
SYMATTR InstName C1
SYMBOL cktsym\\gnd 960 512 R0
SYMATTR InstName U4
SYMBOL cktsym\\gnd -592 240 R0
SYMATTR InstName U17
SYMBOL cktsym\\gnd -592 48 R0
SYMATTR InstName U18
SYMBOL cktsym\\vsource -432 176 R0
WINDOW 123 0 0 Left 2
WINDOW 39 0 0 Left 2
SYMATTR Value .7
SYMATTR InstName Vb
SYMBOL cktsym\\vsource -272 176 R0
WINDOW 123 0 0 Left 2
WINDOW 39 0 0 Left 2
SYMATTR Value 4.3
SYMATTR InstName Vbp
SYMBOL cktsym\\gnd -432 240 R0
SYMATTR InstName U29
SYMBOL cktsym\\gnd -272 240 R0
SYMATTR InstName U30
TEXT -456 352 Left 2 !.include engr2420.sub
TEXT -456 392 Left 2 !.tran 45m
