Version 4
SHEET 1 880 680
WIRE 176 -192 32 -192
WIRE 32 -112 32 -192
WIRE -144 32 -144 16
WIRE -144 32 -352 32
WIRE 32 32 32 16
WIRE 144 32 32 32
WIRE 320 32 320 16
WIRE 528 32 320 32
WIRE 32 48 32 32
WIRE 320 48 320 32
WIRE -352 96 -352 32
WIRE -208 96 -288 96
WIRE -32 96 -208 96
WIRE 208 96 208 32
WIRE 208 96 -32 96
WIRE 384 96 208 96
WIRE 464 96 384 96
WIRE 528 96 528 32
WIRE 208 112 208 96
WIRE -144 192 -144 160
WIRE -144 192 -208 192
WIRE 32 192 32 160
WIRE 32 192 -32 192
WIRE 192 192 32 192
WIRE 256 192 192 192
WIRE 320 192 320 160
WIRE 384 192 320 192
WIRE 32 208 32 192
WIRE -208 256 -208 192
WIRE -32 256 -32 192
WIRE 256 256 256 192
WIRE 384 256 384 192
WIRE -320 320 -320 304
WIRE -144 320 -320 320
WIRE 32 320 -144 320
WIRE 320 320 192 320
WIRE 496 320 320 320
SYMBOL cktsym\\npn 32 96 R0
SYMATTR Value 2N3904
SYMATTR InstName Q1
SYMBOL cktsym\\opamp 176 -64 M270
SYMATTR Value LMC6482
SYMATTR InstName U1
SYMBOL cktsym\\resistor -144 -48 R0
SYMATTR Value 1k
SYMATTR InstName R1
SYMATTR SpiceLine tol=1 pwr=.25
SYMBOL cktsym\\vsource 320 -176 R0
WINDOW 123 0 0 Left 2
WINDOW 39 0 0 Left 2
SYMATTR Value 1m
SYMATTR InstName Vy
SYMBOL cktsym\\opamp 496 192 M90
SYMATTR Value LMC6482
SYMATTR InstName U2
SYMBOL cktsym\\opamp -320 192 M90
SYMATTR Value LMC6482
SYMATTR InstName U3
SYMBOL cktsym\\npn -144 96 R0
SYMATTR Value 2N3904
SYMATTR InstName Q2
SYMBOL cktsym\\npn -144 256 R0
SYMATTR Value 2N3904
SYMATTR InstName Q3
SYMBOL cktsym\\npn 32 256 R0
SYMATTR Value 2N3904
SYMATTR InstName Q4
SYMBOL cktsym\\npn 320 96 M0
SYMATTR Value 2N3904
SYMATTR InstName Q5
SYMBOL cktsym\\npn 320 256 M0
SYMATTR Value 2N3904
SYMATTR InstName Q6
SYMBOL cktsym\\npn 192 256 M0
SYMATTR Value 2N3904
SYMATTR InstName Q7
SYMBOL cktsym\\gnd 208 112 R0
SYMATTR InstName U4
SYMBOL cktsym\\vsource -144 -176 R0
WINDOW 123 0 0 Left 2
WINDOW 39 0 0 Left 2
SYMATTR Value 5V
SYMATTR InstName Vx
SYMBOL cktsym\\resistor 32 -48 R0
SYMATTR Value 1k
SYMATTR InstName R2
SYMATTR SpiceLine tol=1 pwr=.25
SYMBOL cktsym\\resistor 320 -48 R0
SYMATTR Value 1k
SYMATTR InstName R3
SYMATTR SpiceLine tol=1 pwr=.15
SYMBOL cktsym\\vdd -144 -240 R0
SYMATTR InstName U5
SYMBOL cktsym\\vdd 320 -240 R0
SYMATTR InstName U6
SYMBOL cktsym\\vsource -608 -80 R0
WINDOW 123 0 0 Left 2
WINDOW 39 0 0 Left 2
SYMATTR Value 5V
SYMATTR InstName Vcc
SYMBOL cktsym\\vdd -608 -144 R0
SYMATTR InstName U7
SYMBOL cktsym\\gnd -608 -16 R0
SYMATTR InstName U8
TEXT -386 330 Left 2 !.dc Vx 0 5 .1 Vy list 0 1 2 3 4 5
TEXT -384 376 Left 2 !.include engr2420.sub
