Version 4
SHEET 1 880 680
WIRE -368 128 -368 96
WIRE 160 128 160 80
WIRE 160 128 64 128
WIRE 256 128 160 128
WIRE -496 288 -496 256
WIRE -368 288 -368 256
WIRE -144 288 -144 256
WIRE 64 288 64 256
WIRE 256 288 256 256
FLAG 0 192 V1
FLAG 320 192 V2
FLAG -256 128 V1
FLAG -144 128 V2
FLAG 96 16 Vb
FLAG -496 128 Vb
FLAG -256 256 V2
SYMBOL cktsym\\pmos3 160 16 R0
SYMATTR InstName U1
SYMBOL cktsym\\pmos3 64 192 R0
SYMATTR InstName U2
SYMBOL cktsym\\pmos3 256 192 M0
SYMATTR InstName U3
SYMBOL cktsym\\vdd 160 -48 R0
SYMATTR InstName U4
SYMBOL cktsym\\vdd -368 96 R0
SYMATTR InstName U5
SYMBOL cktsym\\vsource -368 192 R0
SYMATTR Value 5
SYMATTR InstName Vdd
SYMBOL cktsym\\vsource -256 192 R0
SYMATTR Value 0
SYMATTR InstName V1
SYMBOL cktsym\\vsource -144 192 R0
SYMATTR Value 1
SYMATTR InstName V2
SYMBOL cktsym\\gnd -368 288 R0
SYMATTR InstName U8
SYMBOL cktsym\\gnd -144 288 R0
SYMATTR InstName U10
SYMBOL cktsym\\gnd 256 288 R0
SYMATTR InstName U7
SYMBOL cktsym\\gnd 64 288 R0
SYMATTR InstName U6
SYMBOL cktsym\\vsource -496 192 R0
SYMATTR Value 3.7V
SYMATTR InstName V3
SYMBOL cktsym\\gnd -496 288 R0
SYMATTR InstName U11
TEXT -530 444 Left 2 !.dc V1 -1 1 .1m
TEXT -528 392 Left 2 !.include engr2420.sub
